spice

.load ./afsquare.so

.verilog
paramset thing square;
endparamset

thing c1(nout,0,nin,0);
spice

.nodelist

v1 nin 0 sin freq=1 amplitude=1
r1 nout 0 .1

* built in, for reference
* c2 0 n3 4

.print tran v(nodes)

.tran 0 1 .1 trace=n
.end
