load ./callfunctions.so
verilog
paramset dut callfunctions;
endparamset

dut d1 (1,0);
spice
V2 1 0 sin freq=1k
.print tran v(V2)

.tran .1m 1m

.tran .1m 1m trace=a
.end
