spice

.load ./coil.so
.options initsc 0

.verilog
paramset mycoil_int coil_idt;
	.inductance=1;
endparamset
// BUG: breaks with smaller value?!
paramset mycoil_mag coil_mag;
	.inductance=1;
endparamset

mycoil_int lint (nint,0);
mycoil_mag lm (nm,0);
spice

V1 n1 0 pulse iv=0 pv=1 rise=1m delay=0
Rint n1 nint .1k
Rb n1 nb .1k
Rm n1 nm .1k

* builtin coil for comparison
Lb nb 0 1

.print dc v(nodes) i(R*)
.dc

.list
.print tran v(nb) v(nint) v(lm) i(r*) hidden(0)
.tran 0 10m .5m trace=n basic
.stat notime
.end
