spice

.load ./cs.so

.options nopicky

.parameter current=2
.verilog
paramset mycs cs;
	.current = current;
endparamset

mycs i1 (0,n1);
spice
R1 n1 0 1

.print dc v(nodes)
.print tran v(nodes)


.dc
.parameter current=3
.tran 0 1 1

.options nobypass

.parameter current=1
.dc
.parameter current=3
.tran 0 1 1
.end
