
load ./ddx.so
options nopicky

verilog
paramset myg ddxvccs;
	.k = 5;
endparamset

paramset myd ddxdiode_r;
	.RS = 0.03;
endparamset

myg g1 (np,nn,nin,nd);
ddxdiode d1 (nd1,nd);
myd d2 (nd2,nd);
ddxtest i1 (t1,0);
ddxres rd (t1,0);
spice

v1 nin nd pulse iv=-1 pv=1 rise=1
e1 nd1 nd nin nd 1
e2 nd2b nd nin nd 1

rhmm nd2b nd2 100k

rd 0 nd 1
r1 np nn 1
rout 0 nn 10

.print dc   v(t1) zero(g1) one(g1) minusone(g1) i(r1) gdio(d*) geff(d2) idio(d*) i(e*)
.print tran v(t1) zero(g1) one(g1) minusone(g1) i(r1) gdio(d*) geff(d2) idio(d*) i(e*)

.dc v1 -1 1 0.2 basic trace=a
.tran 0 1 .1 basic trace=a
.end
