
load ./meas.so
options nopicky

verilog
measv mv (1,0);
measi mi (2,0);
spice

.list

V1 1 0 1
R1 1 2 1

.print dc v(nodes) i(mi) v(mv)
.print tran v(nodes) i(mi) v(mv)

.dc trace=i
.tran 0 1 1
.end
