load public models-uf.so
load lang_adms.so
load d_adms_i.so
load d_adms_vbr.so
load rcd_sym.so
load mos1_a7.so
load d_ageQ_18.so

options nopicky

verilog

paramset mymos mos_level1;
.cgbo=1n;
.cgdo=1n;
.cgso=1n;
endparamset

parameter vsupp={-2}

vsource #(vsupp) vsupp ( 0 nhi );

// `include "mosfets.va"
// `include "builtin_mosfets.va"

parameter lambda=0
parameter xj=0

paramset mypmos mos_level1;
.cgbo=50p; .cgdo=218.971p; .cgso=218.971p; .cj=0; .dev_type=0; .fc=0.5;
.gamma=0.863074; .is=0.; .lambda=lambda; .length=1u; .mj=0.4884; .phi=0.6;
.tox=41.8n; .u0=503.521; .vto=0.844345; .width=10u; .xj=xj;
.vj=1;
endparamset

paramset mynmos mos_level1;
.cgbo=50p; .cgdo=218.971p; .cgso=218.971p; .cj=0; .dev_type=1; .fc=0.5;
.gamma=0.863074; .is=0.; .lambda=lambda; .length=1u; .mj=0.4884; .phi=0.6;
.tox=41.8n; .u0=503.521; .vto=0.844345; .width=10u; .xj=xj;
.vj=1;
endparamset

mypmos          #(.w(10u), .l(1u)) mp  (nd, ng1, nhi,  nhi);

list

spice
rin nin ng1 1k
r1 0 nd 40
vin nhi nin sin amplitude=.3 offset=1

.nodelist

.print tran v(nin) v(nd)
+ s(mp.myQ3)
+ q(mp.myQ3)

.print tw
+ s(mp.myQ3)
+ q(mp.myQ3)

.ttr 0 1e4 .1m .001m * 2 new > tt.out echo tran trace=n

.print dc v(nodes) i(vsupp)
.dc vin .7 2 0.1 r1 1e-12 1e-12 0 vsupp {-1.5} {-1.5} 0
.status notime
.end
