load res.so
options trace

verilog
resif r1 (n, p);
spice
.dc ; dm if
.delete r1

.verilog
resir r1 (n, p);
spice
.dc trace=i ; ir
.delete r1

.verilog
resvf r1 (n, p);
spice
.dc ; vf
.delete r1

.verilog
resvr r1 (n, p);
spice
.dc ; vr


rgnd n 0 1
v1 p n 1
r2 n p 100

.delete r1
.verilog
resif r1 (n, p);
spice

.print dc   v(nodes) v(r1) v(r2) i(r*) i(r1.v_p_n)
.print tran v(nodes) v(r1) v(r2) i(r*) i(r1.v_p_n)

.dc trace=i ; resif
.tran 0 1 .5 trace=n

.delete r1
.verilog
resir r1 (n, p);
spice

.print dc   v(nodes) v(r1) v(r2) i(r*) i(r1.v_p_n)
.print tran v(nodes) v(r1) v(r2) i(r*) i(r1.v_p_n)

.dc trace=i ; resir
.tran 0 1 .5 trace=n

.delete r1
.verilog
resvf r1 (n, p);
spice

.print dc   v(nodes) v(r1) v(r2) i(r*) i(r1.v_p_n)
.print tran v(nodes) v(r1) v(r2) i(r*) i(r1.v_p_n)

.dc trace=i ; resvf
.tran 0 1 .5 trace=n

.delete r1
.verilog
resvr r1 (n, p);
spice

.print dc   v(nodes) v(r1) v(r2) i(r*) i(r1.v_p_n)
.print tran v(nodes) v(r1) v(r2) i(r*) i(r1.v_p_n)

.dc trace=i ; resvr
.tran 0 1 .5 trace=n


.end
