* Wrapper for behavioral model of sensor

* this file is part of gnucap-adms
* Copyright (C) 2013 Lars Hedrich, Felix Salfelder
* License GPLv3 (or later)

.subckt DRUCKSENSOR ngnd nout ndd pout ngnd p_in

.verilog
load ./sensor.so
paramset mydruck drucksensor;
.beta=0.0054;
.Rnull=6.2e3;
.C_waerm=5e-7;
endparamset

mydruck DR2 (nout,pout,p_in,ndd,ngnd);
spice

.ends
