spice

.load ./sin.so

.verilog
paramset mysin sin_;
	.igain=2;
endparamset

paramset mycos sin_;
	.igain=2;
   .phase={3.1415926/2}
endparamset

mysin p1 (n1, nin);
mycos p2 (n2, nin);
spice

.nodelist
.list
V1 nin 0 pulse iv=-3.14 pv=3.14 rise=10

.print dc v(nodes) i(R*)
.dc

.print tran v(nodes)
.tran 0 10 .1 basic trace=a
.end
