
load ./vs.so
options nopicky

verilog
paramset myvsauto vsauto;
	.voltage = 5;
endparamset

paramset myvsreal vsreal;
	.voltage = 5;
	.loss = 1e2;
endparamset

paramset myvsideal vsideal;
	.voltage = 5;
endparamset

myvsreal   v1 (nreal,ngnd);
myvsideal  v2 (nideal,ngnd);
myvsauto   v3 (nauto,ngnd);
spice

.param rload=.1
vb nb ngnd 5

r0 0 ngnd 1u
rb nb ngnd rload
r1 nreal ngnd rload
r2 nideal ngnd rload
r3 nauto ngnd rload

.print dc  v(nauto)   v(nideal)  v(nreal) i(v1) i(vb) i(r*)
.print tran  v(nauto)   v(nideal)  v(nreal) i(v1) i(vb) i(r*)

.dc trace=i
.tran 0 1 1
.end
