spice
* this file is part of gnucap-adms
* Copyright (C) 2013 Felix Salfelder
* License GPLv3 (or later)

.load ./ldo.so
.verilog

paramset myldo ldo;
.rout=2;
endparamset

module ldo101b (vbg2, nout, vrs, vdd, gnd);
myldo LDO1 (vbg2, nout, vrs, vdd, gnd);
endmodule

spice

Xldo vbg nout vrs ndd 0 ldo101b

Vdd ndd 0 5
V2 vrs 0 1
Vb vbg 0 1.4

.list

.print dc v(nodes)
.dc v2 0 5 .5 vb 1 2 .1
.end
.print tran v(nodes) v(vin)
.tran 0 1 1 trace=a
